powerflow/Codes/PF_Formulation/resultados_csv/19/test_system/ramos.csv
caso,script,branch_id,f_bus,t_bus,pf_pu,qf_pu,pt_pu,qt_pu,loss_p_pu,loss_q_pu
test_system.pwf,19,1,24,26,-0.3460000099990872,-0.0690000019937676,0.3472131928493695,5.5347483845670856e-5,0.0012131828502823239,-0.06894465450992193
test_system.pwf,19,2,26,29,-0.3472131928493699,-5.53474850592036e-5,0.3484262594699349,-0.06962537353332443,0.0012130666205649732,-0.06968072101838363
test_system.pwf,19,7,23,29,0.3484262594699354,-0.06175959851305812,-0.3484262594699354,0.06962537353303766,0.0,0.007865775019979537
